<?xml version="1.0" encoding="UTF-8"?>

<routes xmlns:xsi="http://www.w3.org/2001/XMLSchema-instance" xsi:noNamespaceSchemaLocation="http://sumo.dlr.de/xsd/routes_file.xsd">

    <vType id="DEFAULT_VEHTYPE" vClass="passenger" length="5.0" accel="2.6" decel="4.5" maxSpeed="55.56" color="grey"/>
    
    <route id="route_0" edges="-E48 -E47 -E49" />

    <route id="route_1" edges="-E48 -E45" />

</routes>