<?xml version="1.0" encoding="UTF-8"?>

<!-- generated on 2025-12-02 16:21:35 by Eclipse SUMO netedit Version 1.24.0
-->

<routes xmlns:xsi="http://www.w3.org/2001/XMLSchema-instance" xsi:noNamespaceSchemaLocation="http://sumo.dlr.de/xsd/routes_file.xsd">
    <!-- Vehicles, persons and containers (sorted by depart) -->
    <flow id="f_0" begin="0.00" color="255,138,0" from="-E48" to="-E49" end="3600.00" vehsPerHour="1800"/>
    <flow id="f_1" begin="0.00" departLane="1" color="255,238,0" from="-E48" to="-E49" end="3600.00" vehsPerHour="1800"/>
    <flow id="f_10" begin="0.00" color="255,138,0" from="-E48" to="-E49" end="3600.00" vehsPerHour="1800"/>
    <flow id="f_11" begin="0.00" departLane="1" color="255,138,0" from="E46" to="-E45" end="3600.00" vehsPerHour="1800"/>
    <flow id="f_12" begin="0.00" color="0,198,255" from="E50" to="-E45" end="3600.00" vehsPerHour="1800"/>
    <flow id="f_13" begin="0.00" color="255,106,0" from="E49" to="-E50" end="3600.00" vehsPerHour="1800"/>
    <flow id="f_14" begin="0.00" departLane="1" departPos="1.00" color="0,176,255" from="-E51" to="-E50" end="3600.00" vehsPerHour="1800"/>
    <flow id="f_15" begin="0.00" departPos="1.00" color="207,255,0" from="-E51" to="-E50" end="3600.00" vehsPerHour="1800"/>
    <flow id="f_2" begin="0.00" color="68,184,255" from="E45" to="E48" end="3600.00" vehsPerHour="1800"/>
    <flow id="f_3" begin="0.00" departLane="1" from="E45" to="E45" end="3600.00" vehsPerHour="1800"/>
    <flow id="f_4" begin="0.00" color="255,0,45" from="E46" to="-E45" end="3600.00" vehsPerHour="1800"/>
    <flow id="f_5" begin="0.00" departLane="1" color="255,169,0" from="E46" to="-E45" end="3600.00" vehsPerHour="1800"/>
    <flow id="f_7" begin="0.00" color="255,0,125" from="E50" to="E48" end="3600.00" vehsPerHour="1800"/>
    <flow id="f_8" begin="0.00" color="white" from="E49" to="-E45" end="3600.00" vehsPerHour="1800"/>
    <flow id="f_9" begin="0.00" departLane="1" color="white" from="E49" to="E48" end="3600.00" vehsPerHour="1800"/>
</routes>
