<?xml version="1.0" encoding="UTF-8"?>
<vTypes xmlns:xsi="http://www.w3.org/2001/XMLSchema-instance" xsi:noNamespaceSchemaLocation="http://sumo.dlr.de/xsd/vtypes_file.xsd">
    
    <vType id="RESCUE_TYPE" length="5.00" maxSpeed="60.00" vClass="emergency" accel="3.5">
        <param key="has.bluelight.device" value="true"/>
    </vType>
    
</vTypes>